CE
GW	1	25	-10	0	10	10	0	10	5.11844e-4
GW	3	25	-5	10	10	5	10	10	5.1184e-4
GW	4	25	-15	-10	10	15	-10	10	5.1184e-4
GE	0
LD	5	4	0	0	5.8e7	0
LD	5	1	0	0	5.8e7	0
LD	5	3	0	0	5.8e7	0
EX	6	1	13	0	1	0
GN	2	0	0	0	13	0.005
FR	0	1	0	0	14.15	0
