CE
GW	1	1	0.25	0	10	10	0	10	5.11844e-4
GW	2	1	-0.25	0	10	-10	0	10	5.11844e-4
GW	3	1	-5	10	10	5	10	10	5.11844e-4
GW	4	1	-15	-10	10	15	-10	10	5.11844e-4
GE	0
LD	5	3	0	0	5.8e7	0
LD	5	4	1	1	5.8e7	0
GN	-1
FR	0	1	0	0	14.15	0
